
     RDKit          3D

 47 49  0  0  0  0  0  0  0  0999 V2000
   -0.1182   -2.8492    0.6164 C   0  0  0  0  0  0  0  0  0  0  0  0
   -1.4700   -2.2547    0.6352 C   0  0  0  0  0  0  0  0  0  0  0  0
   -1.9684   -0.9662    0.6163 C   0  0  0  0  0  0  0  0  0  0  0  0
   -3.3816   -1.1426    0.7404 C   0  0  0  0  0  0  0  0  0  0  0  0
   -3.6914   -2.4504    0.7700 N   0  0  0  0  0  0  0  0  0  0  0  0
   -2.4992   -3.1341    0.7202 O   0  0  0  0  0  0  0  0  0  0  0  0
   -4.4457   -0.1428    0.7710 C   0  0  0  0  0  0  0  0  0  0  0  0
   -5.5334   -0.2559   -0.1080 C   0  0  0  0  0  0  0  0  0  0  0  0
   -6.5618    0.6894   -0.0916 C   0  0  0  0  0  0  0  0  0  0  0  0
   -6.5152    1.7528    0.8076 C   0  0  0  0  0  0  0  0  0  0  0  0
   -5.4455    1.8678    1.6937 C   0  0  0  0  0  0  0  0  0  0  0  0
   -4.4174    0.9214    1.6793 C   0  0  0  0  0  0  0  0  0  0  0  0
   -1.2034    0.2570    0.5072 C   0  0  0  0  0  0  0  0  0  0  0  0
   -1.4079    1.2369    1.2142 O   0  0  0  0  0  0  0  0  0  0  0  0
   -0.2459    0.2443   -0.4779 N   0  0  0  0  0  0  0  0  0  0  0  0
    0.6495    1.4106   -0.7201 C   0  0  1  0  0  0  0  0  0  0  0  0
    1.9529    1.5169    0.1181 C   0  0  2  0  0  0  0  0  0  0  0  0
    2.6760    1.6424   -1.1540 N   0  0  0  0  0  0  0  0  0  0  0  0
    1.6231    1.2410   -1.9122 C   0  0  0  0  0  0  0  0  0  0  0  0
    1.5357    0.7996   -3.0358 O   0  0  0  0  0  0  0  0  0  0  0  0
    4.0178    1.0401   -1.1968 C   0  0  2  0  0  0  0  0  0  0  0  0
    3.9597   -0.2507   -0.3417 C   0  0  0  0  0  0  0  0  0  0  0  0
    2.5572   -0.0544    0.8722 S   0  0  0  0  0  0  0  0  0  0  0  0
    5.2269   -0.5833    0.4574 C   0  0  0  0  0  0  0  0  0  0  0  0
    3.6130   -1.4678   -1.2201 C   0  0  0  0  0  0  0  0  0  0  0  0
    5.1411    2.0022   -0.7177 C   0  0  0  0  0  0  0  0  0  0  0  0
    4.8254    2.8168    0.1972 O   0  0  0  0  0  0  0  0  0  0  0  0
    6.2540    1.8433   -1.3000 O   0  0  0  0  0  0  0  0  0  0  0  0
    0.0000    0.0000    0.0000 Na  0  0  0  0  0 15  0  0  0  0  0  0
    0.3796   -2.6574   -0.3383 H   0  0  0  0  0  0  0  0  0  0  0  0
    0.4921   -2.4337    1.4229 H   0  0  0  0  0  0  0  0  0  0  0  0
   -0.1602   -3.9341    0.7579 H   0  0  0  0  0  0  0  0  0  0  0  0
   -5.5829   -1.0839   -0.8124 H   0  0  0  0  0  0  0  0  0  0  0  0
   -7.3967    0.5938   -0.7803 H   0  0  0  0  0  0  0  0  0  0  0  0
   -7.3124    2.4911    0.8203 H   0  0  0  0  0  0  0  0  0  0  0  0
   -5.4060    2.6946    2.3983 H   0  0  0  0  0  0  0  0  0  0  0  0
   -3.5988    1.0255    2.3885 H   0  0  0  0  0  0  0  0  0  0  0  0
   -0.1618   -0.5619   -1.0847 H   0  0  0  0  0  0  0  0  0  0  0  0
    0.0789    2.3452   -0.7913 H   0  0  0  0  0  0  0  0  0  0  0  0
    2.0320    2.4014    0.7558 H   0  0  0  0  0  0  0  0  0  0  0  0
    4.2276    0.7932   -2.2461 H   0  0  0  0  0  0  0  0  0  0  0  0
    5.1176   -1.5234    1.0122 H   0  0  0  0  0  0  0  0  0  0  0  0
    5.4778    0.1934    1.1882 H   0  0  0  0  0  0  0  0  0  0  0  0
    6.0865   -0.7086   -0.2108 H   0  0  0  0  0  0  0  0  0  0  0  0
    4.3977   -1.6358   -1.9672 H   0  0  0  0  0  0  0  0  0  0  0  0
    3.5310   -2.3868   -0.6269 H   0  0  0  0  0  0  0  0  0  0  0  0
    2.6704   -1.3425   -1.7622 H   0  0  0  0  0  0  0  0  0  0  0  0
  1  2  1  0
  2  3  4  0
  3  4  4  0
  4  5  4  0
  5  6  4  0
  4  7  1  0
  7  8  4  0
  8  9  4  0
  9 10  4  0
 10 11  4  0
 11 12  4  0
  3 13  1  0
 13 14  2  0
 13 15  1  0
 16 15  1  1
 16 17  1  0
 17 18  1  0
 18 19  1  0
 19 20  2  0
 18 21  1  0
 21 22  1  0
 22 23  1  0
 22 24  1  0
 22 25  1  0
 21 26  1  1
 26 27  2  0
 26 28  1  0
  6  2  4  0
 12  7  4  0
 19 16  1  0
 23 17  1  0
  1 30  1  0
  1 31  1  0
  1 32  1  0
  8 33  1  0
  9 34  1  0
 10 35  1  0
 11 36  1  0
 12 37  1  0
 15 38  1  0
 16 39  1  0
 17 40  1  1
 21 41  1  0
 24 42  1  0
 24 43  1  0
 24 44  1  0
 25 45  1  0
 25 46  1  0
 25 47  1  0
M  CHG  2  28  -1  29   1
M  END
